
**** 05/07/20 16:25:09 ****** PSpice Lite (October 2012) ****** ID# 10813 ****

 ** Profile: "SCHEMATIC1-letssee"  [ c:\users\taylorrc\documents\letssee-pspicefiles\schematic1\letssee.sim ] 


 ****     CIRCUIT DESCRIPTION


******************************************************************************




** Creating circuit file "letssee.cir" 
** WARNING: THIS AUTOMATICALLY GENERATED FILE MAY BE OVERWRITTEN BY SUBSEQUENT SIMULATIONS

*Libraries: 
* Profile Libraries :
* Local Libraries :
* From [PSPICE NETLIST] section of C:\SPB_Data\cdssetup\OrCAD_PSpice/16.6.0/PSpice.ini file:
.lib "nomd.lib" 

*Analysis directives: 
.TRAN  0 65 0 0.01 
.OPTIONS ADVCONV
.PROBE64 V(alias(*)) I(alias(*)) W(alias(*)) D(alias(*)) NOISE(alias(*)) 
.INC "..\SCHEMATIC1.net" 



**** INCLUDING SCHEMATIC1.net ****
* source LETSSEE
C_C1         N14405 0 20 IC=9
I_I1         N14405 0 DC 1

**** RESUMING letssee.cir ****
.END

ERROR(ORPSIM-15142): Node N14405 is floating
