
**** 05/01/20 11:41:54 ***** PSpice 16.6.0 (October 2012) ***** ID# 0 ********

 ** Profile: "SCHEMATIC1-test1"  [ C:\USERS\TAYLORRC\DOCUMENTS\testingCircuit-PSpiceFiles\SCHEMATIC1\test1.sim ] 


 ****     CIRCUIT DESCRIPTION


******************************************************************************




** Creating circuit file "test1.cir" 
** WARNING: THIS AUTOMATICALLY GENERATED FILE MAY BE OVERWRITTEN BY SUBSEQUENT SIMULATIONS

*Libraries: 
* Profile Libraries :
* Local Libraries :
.LIB "C:/Cadence/SPB_16.6/tools/pspice/library/opamp.lib" 
.LIB "C:/Cadence/SPB_16.6/tools/pspice/library/ebipolar.lib" 
.LIB "C:/Cadence/RHIT_Libraries/RHIT_Libraries/Class.lib" 
* From [PSPICE NETLIST] section of C:\SPB_Data\cdssetup\OrCAD_PSpice/16.6.0/PSpice.ini file:
.lib "nomd.lib" 

*Analysis directives: 
.TRAN  0 30 0 0.001 
.OPTIONS ADVCONV
.PROBE64 V(alias(*)) I(alias(*)) W(alias(*)) D(alias(*)) NOISE(alias(*)) 
.INC "..\SCHEMATIC1.net" 



**** INCLUDING SCHEMATIC1.net ****
* source TESTINGCIRCUIT
X_U1         N15097 CHARGE N14717 0 N14967 0 LM311
X_M1         N14760 N14967 CHARGE IRFZ44N
X_U2         N14717 N14776 N14760 LM317
Q_Q1         N14717 N15047 N15004 BC557A 
D_D1         N14717 N14724 MEH_LED 
D_D2         N15000 0 MEH_LED 
V_V1         N14717 0  DC 32
R_R1         N14776 N14760  1k TC=0,0 
R_R2         0 N14776  20k TC=0,0 
R_R3         N14717 N15097  1k TC=0,0 
R_R4         N15097 0  5k TC=0,0 
R_R5         N14717 N14967  10k TC=0,0 
R_R6         N15047 N14967  1k TC=0,0 
R_R7         N15004 N15000  10k TC=0,0 
R_R8         N14967 0  10k TC=0,0 
R_R9         N14724 0  1k TC=0,0 
C_C1         0 CHARGE  4  TC=0,0 
C_C2         0 N14760  1n  TC=0,0 
** Floating/unmodeled pin fixups **
R__UC0001   0  0   {1/GMIN}

**** RESUMING test1.cir ****
.END


ERROR(ORPSIM-15108): Subcircuit IRFZ44N used by X_M1 is undefined
