
**** 05/06/20 18:00:13 ****** PSpice Lite (October 2012) ****** ID# 10813 ****

 ** Profile: "SCHEMATIC1-schem1"  [ c:\users\taylorrc\documents\12vtry-pspicefiles\schematic1\schem1.sim ] 


 ****     CIRCUIT DESCRIPTION


******************************************************************************




** Creating circuit file "schem1.cir" 
** WARNING: THIS AUTOMATICALLY GENERATED FILE MAY BE OVERWRITTEN BY SUBSEQUENT SIMULATIONS

*Libraries: 
* Profile Libraries :
* Local Libraries :
.LIB "C:/Cadence/SPB_16.6/tools/pspice/library/irf.lib" 
.LIB "C:/Cadence/RHIT_Libraries/RHIT_Libraries/Class.lib" 
.LIB "C:/Cadence/SPB_16.6/tools/pspice/library/opamp.lib" 
* From [PSPICE NETLIST] section of C:\SPB_Data\cdssetup\OrCAD_PSpice/16.6.0/PSpice.ini file:
.lib "nomd.lib" 

*Analysis directives: 
.TRAN  0 180 0 0.01 
.OPTIONS ADVCONV
.PROBE64 V(alias(*)) I(alias(*)) W(alias(*)) D(alias(*)) NOISE(alias(*)) 
.INC "..\SCHEMATIC1.net" 



**** INCLUDING SCHEMATIC1.net ****
* source 12VTRY
V_V1         N14465 0  DC 12
X_U1         N14465 N14485 N14718 LM317
C_C1         N14485 0 10 IC=0
C_C2         N14465 0 1u 
R_R1         N14718 N14485 2 
X_U2         N15691 N14485 N14465 0 N15754 0 LM311
R_R2         N15691 N14465 1k 
R_R3         0 N15691 3k 
R_R4         N15754 0 1k 
R_R5         N15754 N14465 330 
R_R7         N17421 N14465 1k 
D_D2         N17421 0 MEH_LED 
D_D3         N20129 N14485 D1N4744A 
D_D4         N20133 N20129 D1N4744A 
D_D5         0 N20133 D1N4744A 
** Floating/unmodeled pin fixups **
R__UC0001   0  0   {1/GMIN}

**** RESUMING schem1.cir ****
.END


ERROR(ORPSIM-15113): Model D1N4744A used by D_D3 is undefined

ERROR(ORPSIM-15113): Model D1N4744A used by D_D4 is undefined

ERROR(ORPSIM-15113): Model D1N4744A used by D_D5 is undefined
