
**** 05/02/20 12:57:00 ***** PSpice 16.6.0 (October 2012) ***** ID# 0 ********

 ** Profile: "SCHEMATIC1-dischargeTest"  [ C:\USERS\TAYLORRC\DOCUMENTS\DischargingCircuit-PSpiceFiles\SCHEMATIC1\dischargeTest.sim ] 


 ****     CIRCUIT DESCRIPTION


******************************************************************************




** Creating circuit file "dischargeTest.cir" 
** WARNING: THIS AUTOMATICALLY GENERATED FILE MAY BE OVERWRITTEN BY SUBSEQUENT SIMULATIONS

*Libraries: 
* Profile Libraries :
* Local Libraries :
* From [PSPICE NETLIST] section of C:\SPB_Data\cdssetup\OrCAD_PSpice/16.6.0/PSpice.ini file:
.lib "nomd.lib" 

*Analysis directives: 
.TRAN  0 60 0 
.OPTIONS ADVCONV
.PROBE64 V(alias(*)) I(alias(*)) W(alias(*)) D(alias(*)) NOISE(alias(*)) 
.INC "..\SCHEMATIC1.net" 



**** INCLUDING SCHEMATIC1.net ****
* source DISCHARGINGCIRCUIT
X_U1         N14429 N17233 0 LM317
C_C1         N14429 0 0.204 IC=12.5
R_R1         0 N14429  100k TC=0,0 
C_C2         0 0 1n 
R_R2         N17233 0  1k TC=0,0 
R_R3         0 N17233  4.7k TC=0,0 

**** RESUMING dischargeTest.cir ****
.END

ERROR(ORPSIM-15108): Subcircuit LM317 used by X_U1 is undefined
